5
CH4 optimized with ADF in AMS.
C         0.00002638142759       0.00000000000000      -0.00021641482009
H        -0.00008339458681       0.00000000000000       1.08368126631632
H         1.02266151716187       0.00000000000000      -0.36118035457601
H        -0.51130225200133      -0.88503525970111      -0.36107174846011
H        -0.51130225200133       0.88503525970111      -0.36107174846011
