    6
 
 C    -0.006078    -0.038776    -0.253376 -0.386419
 H     0.969330    -0.448102    -0.481858  0.139222
 H    -0.182803     0.945333    -0.667467  0.139217
 H    -0.823574    -0.733593    -0.395168  0.139220
 H     0.025720     0.164102     1.072331 -0.007729
 H     0.047797     0.304917     1.992418 -0.023519
